Version 4.1
SHEET 1 1520 680
WIRE 992 16 992 -16
WIRE 1008 16 992 16
WIRE 928 64 896 64
WIRE 1008 64 1008 16
WIRE 1008 64 992 64
WIRE 896 144 896 64
WIRE 896 144 816 144
WIRE 992 144 992 112
WIRE 1104 144 992 144
WIRE 1152 144 1104 144
WIRE 992 176 992 144
WIRE 816 192 816 144
WIRE 1104 192 1104 144
WIRE 896 224 896 144
WIRE 928 224 896 224
WIRE 1008 224 992 224
WIRE 656 240 656 224
WIRE 1008 272 1008 224
WIRE 1008 272 992 272
WIRE 816 304 816 272
WIRE 992 304 992 272
WIRE 1104 304 1104 256
FLAG 992 304 0
FLAG 992 -16 COM
FLAG 656 320 0
FLAG 656 224 COM
FLAG 816 304 0
FLAG 1152 144 Vout
FLAG 1104 304 0
SYMBOL EE551\\NMOS4 928 224 R0
WINDOW 123 73 16 Left 1
WINDOW 39 73 36 Left 1
SYMATTR Value2 W={Wn}
SYMATTR SpiceLine L={Ln}
SYMATTR InstName M2
SYMBOL EE551\\PMOS4 928 64 R0
WINDOW 123 73 16 Left 1
WINDOW 39 73 36 Left 1
SYMATTR Value2 W={Wp}
SYMATTR SpiceLine L={Lp}
SYMATTR InstName M1
SYMBOL voltage 656 224 R0
SYMATTR InstName Vdd
SYMATTR Value 5
SYMBOL voltage 816 176 R0
SYMATTR InstName Vin
SYMATTR Value {Vin}
SYMBOL cap 1088 192 R0
SYMATTR InstName C1
SYMATTR Value 1µ
TEXT 408 -96 Left 2 ;.dc Vin 0 5 0.01
TEXT 408 -16 Left 2 !.param Wp 2u\n.param Lp 2u\n.param Wn 2u\n.param Ln 2u
TEXT 408 136 Left 2 !.step param Wn 0.5u 4u 0.01u
TEXT 408 -64 Left 2 !.op
TEXT -120 -48 Left 2 ;d((Ix(M1:Vd)-Ix(M2:Vd)))
TEXT 408 168 Left 2 ;.step param Vin 0 5 1
TEXT 408 96 Left 2 !.param Vin=2.5
